34
	Energy:      10.2769200
Ga        -3.91255        0.33855        0.30415
Ga        -0.81620        0.41517        0.22509
Ga         2.27992        0.49689        0.22563
Ga         5.37611        0.58379        0.30528
Ga        -5.37421       -2.36667        0.39881
Ga        -2.29181       -2.29443        0.25312
Ga         0.80254       -2.21702        0.22161
Ga         3.89672       -2.13100        0.25336
Ga         6.97874       -2.04040        0.39875
Ga        -3.75707       -4.99988        0.42855
Ga        -0.67548       -4.93299        0.33637
Ga         2.42200       -4.85119        0.33632
Ga         5.50287       -4.75528        0.42824
N         -5.47805       -0.58563       -0.29119
N         -3.84237       -3.24781       -0.33013
N         -2.35841       -0.50815       -0.42326
N          0.75540       -0.43091       -0.45732
N         -0.72779       -3.17176       -0.40890
N         -2.21487       -5.91286       -0.23984
N          0.89825       -5.83844       -0.26675
N          2.38121       -3.08959       -0.40882
N          3.86890       -0.34353       -0.42258
N          6.98819       -0.25609       -0.29059
N          5.49545       -3.00104       -0.33018
N          4.01094       -5.74835       -0.24008
N         -3.99093        2.15685       -0.28625
N         -0.87291        2.23014       -0.37286
N          2.24092        2.31244       -0.37198
N          5.35835        2.40403       -0.28410
Ga        -2.43060        3.03553        0.38583
Ga         0.66121        3.12632        0.33031
Ga         3.75351        3.19867        0.38781
Ga        -8.77280       -8.24102       -0.00642
N         -8.91097      -10.97115       -0.00642
